REMARK SMILES CC(=O)Nc1ccc(O)cc1
REMARK SMILES IDX 5 1 6 2 7 3 8 4 10 5 11 6 4 7 1 8 2 9 3 10 9 12
REMARK H PARENT 4 11 9 13
REMARK Flexibility Score: inf
ROOT
ATOM      1  C   UNL A   1       4.626  -0.705   0.845  1.00  0.00     0.041 A 
ATOM      2  C   UNL A   1       5.423   0.443   0.609  1.00  0.00     0.030 A 
ATOM      3  C   UNL A   1       6.811   0.391   0.772  1.00  0.00     0.048 A 
ATOM      4  C   UNL A   1       7.436  -0.796   1.173  1.00  0.00     0.115 A 
ATOM      5  C   UNL A   1       6.664  -1.933   1.409  1.00  0.00     0.048 A 
ATOM      6  C   UNL A   1       5.277  -1.888   1.247  1.00  0.00     0.030 A 
ENDROOT
BRANCH   1   7
ATOM      7  N   UNL A   1       3.194  -0.745   0.702  1.00  0.00    -0.326 N 
ATOM      8  C   UNL A   1       0.885   0.018   0.235  1.00  0.00     0.114 C 
ATOM      9  C   UNL A   1       2.362   0.270   0.321  1.00  0.00     0.221 C 
ATOM     10  O   UNL A   1       2.779   1.382   0.046  1.00  0.00    -0.275 OA
ATOM     11  H   UNL A   1       2.739  -1.647   0.911  1.00  0.00     0.169 HD
ENDBRANCH   1   7
BRANCH   4  12
ATOM     12  O   UNL A   1       8.773  -0.854   1.333  1.00  0.00    -0.508 OA
ATOM     13  H   UNL A   1       9.343  -0.087   1.179  1.00  0.00     0.293 HD
ENDBRANCH   4  12
TORSDOF 2
