MODEL 1
REMARK VINA RESULT:    -5.993      0.000      0.000
REMARK INTER + INTRA:          -6.642
REMARK INTER:                  -6.518
REMARK INTRA:                  -0.124
REMARK UNBOUND:                -0.124
REMARK SMILES CC(=O)Nc1ccc(O)cc1
REMARK SMILES IDX 5 1 6 2 7 3 8 4 10 5 11 6 4 7 1 8 2 9 3 10 9 12
REMARK H PARENT 4 11 9 13
REMARK Flexibility Score: inf
ROOT
ATOM      1  C   UNL A   1      17.774  41.552  60.911  1.00  0.00     0.041 A 
ATOM      2  C   UNL A   1      16.658  42.283  61.389  1.00  0.00     0.030 A 
ATOM      3  C   UNL A   1      16.709  42.930  62.627  1.00  0.00     0.048 A 
ATOM      4  C   UNL A   1      17.864  42.865  63.416  1.00  0.00     0.115 A 
ATOM      5  C   UNL A   1      18.969  42.149  62.958  1.00  0.00     0.048 A 
ATOM      6  C   UNL A   1      18.925  41.501  61.721  1.00  0.00     0.030 A 
ENDROOT
BRANCH   1   7
ATOM      7  N   UNL A   1      17.812  40.856  59.651  1.00  0.00    -0.326 N 
ATOM      8  C   UNL A   1      17.324  39.148  57.926  1.00  0.00     0.114 C 
ATOM      9  C   UNL A   1      17.143  39.716  59.303  1.00  0.00     0.221 C 
ATOM     10  O   UNL A   1      16.399  39.139  60.077  1.00  0.00    -0.275 OA
ATOM     11  H   UNL A   1      18.416  41.265  58.921  1.00  0.00     0.169 HD
ENDBRANCH   1   7
BRANCH   4  12
ATOM     12  O   UNL A   1      17.921  43.485  64.612  1.00  0.00    -0.508 OA
ATOM     13  H   UNL A   1      18.611  43.287  65.261  1.00  0.00     0.293 HD
ENDBRANCH   4  12
TORSDOF 2
ENDMDL
MODEL 2
REMARK VINA RESULT:    -5.927      0.094      1.461
REMARK INTER + INTRA:          -6.571
REMARK INTER:                  -6.464
REMARK INTRA:                  -0.107
REMARK UNBOUND:                -0.124
REMARK SMILES CC(=O)Nc1ccc(O)cc1
REMARK SMILES IDX 5 1 6 2 7 3 8 4 10 5 11 6 4 7 1 8 2 9 3 10 9 12
REMARK H PARENT 4 11 9 13
REMARK Flexibility Score: inf
ROOT
ATOM      1  C   UNL A   1      17.861  41.554  60.902  1.00  0.00     0.041 A 
ATOM      2  C   UNL A   1      18.999  41.515  61.745  1.00  0.00     0.030 A 
ATOM      3  C   UNL A   1      18.991  42.166  62.982  1.00  0.00     0.048 A 
ATOM      4  C   UNL A   1      17.857  42.869  63.408  1.00  0.00     0.115 A 
ATOM      5  C   UNL A   1      16.730  42.916  62.589  1.00  0.00     0.048 A 
ATOM      6  C   UNL A   1      16.732  42.267  61.351  1.00  0.00     0.030 A 
ENDROOT
BRANCH   1   7
ATOM      7  N   UNL A   1      17.779  40.915  59.614  1.00  0.00    -0.326 N 
ATOM      8  C   UNL A   1      17.145  39.270  57.875  1.00  0.00     0.114 C 
ATOM      9  C   UNL A   1      17.100  39.774  59.288  1.00  0.00     0.221 C 
ATOM     10  O   UNL A   1      16.455  39.146  60.109  1.00  0.00    -0.275 OA
ATOM     11  H   UNL A   1      18.292  41.370  58.844  1.00  0.00     0.169 HD
ENDBRANCH   1   7
BRANCH   4  12
ATOM     12  O   UNL A   1      17.841  43.499  64.599  1.00  0.00    -0.508 OA
ATOM     13  H   UNL A   1      17.628  43.037  65.423  1.00  0.00     0.293 HD
ENDBRANCH   4  12
TORSDOF 2
ENDMDL
MODEL 3
REMARK VINA RESULT:    -5.868      1.708      2.458
REMARK INTER + INTRA:          -6.506
REMARK INTER:                  -6.346
REMARK INTRA:                  -0.160
REMARK UNBOUND:                -0.124
REMARK SMILES CC(=O)Nc1ccc(O)cc1
REMARK SMILES IDX 5 1 6 2 7 3 8 4 10 5 11 6 4 7 1 8 2 9 3 10 9 12
REMARK H PARENT 4 11 9 13
REMARK Flexibility Score: inf
ROOT
ATOM      1  C   UNL A   1      17.013  40.326  59.655  1.00  0.00     0.041 A 
ATOM      2  C   UNL A   1      18.120  41.093  60.097  1.00  0.00     0.030 A 
ATOM      3  C   UNL A   1      18.221  41.490  61.435  1.00  0.00     0.048 A 
ATOM      4  C   UNL A   1      17.229  41.137  62.358  1.00  0.00     0.115 A 
ATOM      5  C   UNL A   1      16.135  40.383  61.936  1.00  0.00     0.048 A 
ATOM      6  C   UNL A   1      16.029  39.983  60.602  1.00  0.00     0.030 A 
ENDROOT
BRANCH   1   7
ATOM      7  N   UNL A   1      16.827  39.873  58.301  1.00  0.00    -0.326 N 
ATOM      8  C   UNL A   1      17.055  38.481  56.266  1.00  0.00     0.114 C 
ATOM      9  C   UNL A   1      17.382  38.778  57.700  1.00  0.00     0.221 C 
ATOM     10  O   UNL A   1      18.139  38.028  58.292  1.00  0.00    -0.275 OA
ATOM     11  H   UNL A   1      16.198  40.441  57.712  1.00  0.00     0.169 HD
ENDBRANCH   1   7
BRANCH   4  12
ATOM     12  O   UNL A   1      17.319  41.517  63.648  1.00  0.00    -0.508 OA
ATOM     13  H   UNL A   1      17.964  41.127  64.255  1.00  0.00     0.293 HD
ENDBRANCH   4  12
TORSDOF 2
ENDMDL
MODEL 4
REMARK VINA RESULT:    -5.826      2.477      3.140
REMARK INTER + INTRA:          -6.460
REMARK INTER:                  -6.297
REMARK INTRA:                  -0.163
REMARK UNBOUND:                -0.124
REMARK SMILES CC(=O)Nc1ccc(O)cc1
REMARK SMILES IDX 5 1 6 2 7 3 8 4 10 5 11 6 4 7 1 8 2 9 3 10 9 12
REMARK H PARENT 4 11 9 13
REMARK Flexibility Score: inf
ROOT
ATOM      1  C   UNL A   1      15.898  42.517  62.753  1.00  0.00     0.041 A 
ATOM      2  C   UNL A   1      14.511  42.279  62.928  1.00  0.00     0.030 A 
ATOM      3  C   UNL A   1      13.886  42.581  64.142  1.00  0.00     0.048 A 
ATOM      4  C   UNL A   1      14.620  43.122  65.205  1.00  0.00     0.115 A 
ATOM      5  C   UNL A   1      15.985  43.360  65.046  1.00  0.00     0.048 A 
ATOM      6  C   UNL A   1      16.615  43.062  63.836  1.00  0.00     0.030 A 
ENDROOT
BRANCH   1   7
ATOM      7  N   UNL A   1      16.624  42.239  61.541  1.00  0.00    -0.326 N 
ATOM      8  C   UNL A   1      17.922  40.981  59.849  1.00  0.00     0.114 C 
ATOM      9  C   UNL A   1      17.204  41.060  61.164  1.00  0.00     0.221 C 
ATOM     10  O   UNL A   1      17.159  40.063  61.863  1.00  0.00    -0.275 OA
ATOM     11  H   UNL A   1      16.719  43.022  60.876  1.00  0.00     0.169 HD
ENDBRANCH   1   7
BRANCH   4  12
ATOM     12  O   UNL A   1      14.025  43.414  66.379  1.00  0.00    -0.508 OA
ATOM     13  H   UNL A   1      14.134  42.858  67.163  1.00  0.00     0.293 HD
ENDBRANCH   4  12
TORSDOF 2
ENDMDL
MODEL 5
REMARK VINA RESULT:    -5.759      2.175      5.153
REMARK INTER + INTRA:          -6.388
REMARK INTER:                  -6.225
REMARK INTRA:                  -0.163
REMARK UNBOUND:                -0.124
REMARK SMILES CC(=O)Nc1ccc(O)cc1
REMARK SMILES IDX 5 1 6 2 7 3 8 4 10 5 11 6 4 7 1 8 2 9 3 10 9 12
REMARK H PARENT 4 11 9 13
REMARK Flexibility Score: inf
ROOT
ATOM      1  C   UNL A   1      16.370  41.890  61.394  1.00  0.00     0.041 A 
ATOM      2  C   UNL A   1      17.585  41.273  61.001  1.00  0.00     0.030 A 
ATOM      3  C   UNL A   1      17.851  41.022  59.651  1.00  0.00     0.048 A 
ATOM      4  C   UNL A   1      16.921  41.375  58.665  1.00  0.00     0.115 A 
ATOM      5  C   UNL A   1      15.722  41.982  59.038  1.00  0.00     0.048 A 
ATOM      6  C   UNL A   1      15.451  42.236  60.384  1.00  0.00     0.030 A 
ENDROOT
BRANCH   1   7
ATOM      7  N   UNL A   1      16.012  42.187  62.756  1.00  0.00    -0.326 N 
ATOM      8  C   UNL A   1      15.859  43.412  64.902  1.00  0.00     0.114 C 
ATOM      9  C   UNL A   1      16.336  43.297  63.484  1.00  0.00     0.221 C 
ATOM     10  O   UNL A   1      17.004  44.205  63.020  1.00  0.00    -0.275 OA
ATOM     11  H   UNL A   1      15.442  41.479  63.243  1.00  0.00     0.169 HD
ENDBRANCH   1   7
BRANCH   4  12
ATOM     12  O   UNL A   1      17.170  41.136  57.362  1.00  0.00    -0.508 OA
ATOM     13  H   UNL A   1      17.954  40.649  57.070  1.00  0.00     0.293 HD
ENDBRANCH   4  12
TORSDOF 2
ENDMDL
MODEL 6
REMARK VINA RESULT:    -5.703      2.392      6.078
REMARK INTER + INTRA:          -6.326
REMARK INTER:                  -6.179
REMARK INTRA:                  -0.147
REMARK UNBOUND:                -0.124
REMARK SMILES CC(=O)Nc1ccc(O)cc1
REMARK SMILES IDX 5 1 6 2 7 3 8 4 10 5 11 6 4 7 1 8 2 9 3 10 9 12
REMARK H PARENT 4 11 9 13
REMARK Flexibility Score: inf
ROOT
ATOM      1  C   UNL A   1      17.057  39.411  58.602  1.00  0.00     0.041 A 
ATOM      2  C   UNL A   1      17.894  38.370  58.129  1.00  0.00     0.030 A 
ATOM      3  C   UNL A   1      18.102  38.192  56.757  1.00  0.00     0.048 A 
ATOM      4  C   UNL A   1      17.485  39.039  55.829  1.00  0.00     0.115 A 
ATOM      5  C   UNL A   1      16.658  40.067  56.280  1.00  0.00     0.048 A 
ATOM      6  C   UNL A   1      16.447  40.251  57.649  1.00  0.00     0.030 A 
ENDROOT
BRANCH   1   7
ATOM      7  N   UNL A   1      16.787  39.670  59.992  1.00  0.00    -0.326 N 
ATOM      8  C   UNL A   1      16.958  40.697  62.239  1.00  0.00     0.114 C 
ATOM      9  C   UNL A   1      17.390  40.587  60.806  1.00  0.00     0.221 C 
ATOM     10  O   UNL A   1      18.275  41.325  60.408  1.00  0.00    -0.275 OA
ATOM     11  H   UNL A   1      16.049  39.096  60.428  1.00  0.00     0.169 HD
ENDBRANCH   1   7
BRANCH   4  12
ATOM     12  O   UNL A   1      17.679  38.873  54.505  1.00  0.00    -0.508 OA
ATOM     13  H   UNL A   1      17.810  38.000  54.110  1.00  0.00     0.293 HD
ENDBRANCH   4  12
TORSDOF 2
ENDMDL
MODEL 7
REMARK VINA RESULT:    -5.647      3.491      4.899
REMARK INTER + INTRA:          -6.266
REMARK INTER:                  -6.134
REMARK INTRA:                  -0.132
REMARK UNBOUND:                -0.124
REMARK SMILES CC(=O)Nc1ccc(O)cc1
REMARK SMILES IDX 5 1 6 2 7 3 8 4 10 5 11 6 4 7 1 8 2 9 3 10 9 12
REMARK H PARENT 4 11 9 13
REMARK Flexibility Score: inf
ROOT
ATOM      1  C   UNL A   1      17.261  38.989  57.351  1.00  0.00     0.041 A 
ATOM      2  C   UNL A   1      17.785  40.176  57.922  1.00  0.00     0.030 A 
ATOM      3  C   UNL A   1      17.239  40.701  59.098  1.00  0.00     0.048 A 
ATOM      4  C   UNL A   1      16.164  40.064  59.729  1.00  0.00     0.115 A 
ATOM      5  C   UNL A   1      15.637  38.897  59.177  1.00  0.00     0.048 A 
ATOM      6  C   UNL A   1      16.179  38.366  58.004  1.00  0.00     0.030 A 
ENDROOT
BRANCH   1   7
ATOM      7  N   UNL A   1      17.758  38.377  56.147  1.00  0.00    -0.326 N 
ATOM      8  C   UNL A   1      18.213  38.023  53.739  1.00  0.00     0.114 C 
ATOM      9  C   UNL A   1      17.612  38.817  54.862  1.00  0.00     0.221 C 
ATOM     10  O   UNL A   1      17.007  39.840  54.591  1.00  0.00    -0.275 OA
ATOM     11  H   UNL A   1      18.290  37.501  56.266  1.00  0.00     0.169 HD
ENDBRANCH   1   7
BRANCH   4  12
ATOM     12  O   UNL A   1      15.631  40.564  60.861  1.00  0.00    -0.508 OA
ATOM     13  H   UNL A   1      15.337  39.995  61.586  1.00  0.00     0.293 HD
ENDBRANCH   4  12
TORSDOF 2
ENDMDL
MODEL 8
REMARK VINA RESULT:    -5.641      2.984      3.433
REMARK INTER + INTRA:          -6.259
REMARK INTER:                  -6.147
REMARK INTRA:                  -0.112
REMARK UNBOUND:                -0.124
REMARK SMILES CC(=O)Nc1ccc(O)cc1
REMARK SMILES IDX 5 1 6 2 7 3 8 4 10 5 11 6 4 7 1 8 2 9 3 10 9 12
REMARK H PARENT 4 11 9 13
REMARK Flexibility Score: inf
ROOT
ATOM      1  C   UNL A   1      15.553  40.550  58.950  1.00  0.00     0.041 A 
ATOM      2  C   UNL A   1      14.780  41.694  58.626  1.00  0.00     0.030 A 
ATOM      3  C   UNL A   1      14.418  42.611  59.618  1.00  0.00     0.048 A 
ATOM      4  C   UNL A   1      14.811  42.414  60.947  1.00  0.00     0.115 A 
ATOM      5  C   UNL A   1      15.571  41.293  61.279  1.00  0.00     0.048 A 
ATOM      6  C   UNL A   1      15.938  40.374  60.293  1.00  0.00     0.030 A 
ENDROOT
BRANCH   1   7
ATOM      7  N   UNL A   1      15.972  39.555  57.997  1.00  0.00    -0.326 N 
ATOM      8  C   UNL A   1      17.171  38.525  56.091  1.00  0.00     0.114 C 
ATOM      9  C   UNL A   1      16.873  39.698  56.980  1.00  0.00     0.221 C 
ATOM     10  O   UNL A   1      17.448  40.751  56.765  1.00  0.00    -0.275 OA
ATOM     11  H   UNL A   1      15.543  38.622  58.093  1.00  0.00     0.169 HD
ENDBRANCH   1   7
BRANCH   4  12
ATOM     12  O   UNL A   1      14.466  43.293  61.908  1.00  0.00    -0.508 OA
ATOM     13  H   UNL A   1      14.121  44.174  61.700  1.00  0.00     0.293 HD
ENDBRANCH   4  12
TORSDOF 2
ENDMDL
MODEL 9
REMARK VINA RESULT:    -5.487      1.821      4.945
REMARK INTER + INTRA:          -6.092
REMARK INTER:                  -5.942
REMARK INTRA:                  -0.149
REMARK UNBOUND:                -0.124
REMARK SMILES CC(=O)Nc1ccc(O)cc1
REMARK SMILES IDX 5 1 6 2 7 3 8 4 10 5 11 6 4 7 1 8 2 9 3 10 9 12
REMARK H PARENT 4 11 9 13
REMARK Flexibility Score: inf
ROOT
ATOM      1  C   UNL A   1      17.154  40.778  61.119  1.00  0.00     0.041 A 
ATOM      2  C   UNL A   1      15.987  39.991  60.956  1.00  0.00     0.030 A 
ATOM      3  C   UNL A   1      15.594  39.555  59.686  1.00  0.00     0.048 A 
ATOM      4  C   UNL A   1      16.347  39.892  58.554  1.00  0.00     0.115 A 
ATOM      5  C   UNL A   1      17.497  40.667  58.700  1.00  0.00     0.048 A 
ATOM      6  C   UNL A   1      17.895  41.104  59.966  1.00  0.00     0.030 A 
ENDROOT
BRANCH   1   7
ATOM      7  N   UNL A   1      17.634  41.269  62.384  1.00  0.00    -0.326 N 
ATOM      8  C   UNL A   1      18.021  42.815  64.279  1.00  0.00     0.114 C 
ATOM      9  C   UNL A   1      17.425  42.501  62.938  1.00  0.00     0.221 C 
ATOM     10  O   UNL A   1      16.767  43.361  62.378  1.00  0.00    -0.275 OA
ATOM     11  H   UNL A   1      18.204  40.615  62.941  1.00  0.00     0.169 HD
ENDBRANCH   1   7
BRANCH   4  12
ATOM     12  O   UNL A   1      15.974  39.477  57.327  1.00  0.00    -0.508 OA
ATOM     13  H   UNL A   1      15.778  40.099  56.612  1.00  0.00     0.293 HD
ENDBRANCH   4  12
TORSDOF 2
ENDMDL
